# mp2/cc-PVDZ opt(tight) integral(grid=superfine) scf(maxcyc=256)

OH-chloromethane_reactant

-1 1
Cl                    -0.784131   -2.134243    0.061874
C                     1.236089    0.656359    0.109587
H                     0.787482    0.691280    1.125163
H                     0.436824    0.974515   -0.593137
H                     2.037390    1.421354    0.072170
O                     1.791332   -0.589030   -0.208993
H                     1.013074   -1.212055   -0.152883


