# mp2/cc-PVDZ opt(tight) integral(grid=superfine) scf(maxcyc=256)

OH-chloromethane_product

-1 1
Cl                    -0.774988   -0.727695   -0.490827
C                     0.304958    0.450836    0.556531
H                    -0.104290    0.234268    1.574557
H                     2.018892    0.001145    0.045569
H                    -0.171437    1.429357    0.299037
O                     2.845555   -0.411900   -0.384458
H                     2.376230   -1.040375   -0.948501


