# mp2/cc-PVDZ irc(reverse, calcfc, maxpoints=64, stepsize=5, tight) integral(grid=superfine) scf(maxcyc=256)

OH-chloromethane_reactant

-1 1
Cl                    -1.594915   -0.172227   -0.052327
C                     0.337081    0.037514    0.024553
H                     0.624810   -0.466670    0.946153
H                     0.796626   -0.394766   -0.862834
H                     0.488174    1.116279    0.078027
O                     2.702459    0.038461   -0.228277
H                     2.757059   -0.878419    0.094712


