# mp2/cc-PVDZ irc(reverse, calcfc, maxpoints=2, stepsize=10, tight) integral(grid=superfine) scf(maxcyc=256)

OH-chloromethane_reactant

-1 1
Cl                    -1.543923   -0.087095    0.024854
C                     0.434399    0.112553    0.080223
H                     0.699706   -0.400113    1.001684
H                     0.811592   -0.341073   -0.829906
H                     0.567461    1.192359    0.124069
O                     2.741639    0.127698   -0.143001
H                     2.807186   -0.796149    0.155858


