# m06l/aug-cc-PVDZ opt(qst3, calcfc, noeigen, tight) integral(grid=superfine) scf(maxcyc=256) freq

OH-chloromethane_ts.xyz reactant

-1 1
Cl                    -0.796788   -2.308510    0.020073
C                     1.243032    0.701668    0.126829
H                     0.833778    0.718327    1.154722
H                     0.441203    1.045024   -0.553991
H                     2.074754    1.423486    0.073737
O                     1.741664   -0.566320   -0.230157
H                     0.980417   -1.205495   -0.177432

OH-chloromethane_ts.xyz product

-1 1
Cl                    -1.010545   -0.679580   -0.432897
C                     0.294184    0.407265    0.516435
H                    -0.021854    0.216957    1.562570
H                     1.870954   -0.044981    0.010088
H                    -0.089335    1.420362    0.277593
O                     2.829595   -0.345772   -0.321961
H                     2.621922   -1.038611   -0.959920

OH-chloromethane_ts.xyz ts

-1 1
Cl     -1.657852         0.000036       0.000008
C       0.398411        -0.014663      -0.000001
H       0.566149        -0.545967       0.929261
H       0.566141        -0.546052      -0.929216
H       0.589545         1.052467      -0.000051
O       2.631756         0.113223      -0.000017
H       3.017143        -0.778872       0.000022

