# MP2/cc-pVDZ irc(forward, calcfc, maxpoints=64, stepsize=5, tight) integral(grid=superfine) scf(maxcyc=256)

OH-chloroform_ts_product

-1 1
Cl                    -1.455030   -0.165494   -0.102319
C                     0.174112    0.467009    0.645538
H                     0.100619    0.033357    1.674411
H                     1.798229    0.196577   -0.146999
H                    -0.087727    1.540732    0.814153
O                     2.760464   -0.041705   -0.407097
H                     2.777231   -0.925041   -0.016532


