# b3lyp/aug-cc-PVDZ opt(tight) integral(grid=superfine) scf(maxcyc=256)

OH-chloromethane_reactant

-1 1
Cl                    -0.801969   -2.156499   -0.308710
C                     1.246951    0.662661    0.166216
H                     1.059357    0.929831    1.236292
H                     0.279481    0.789546   -0.360023
H                     1.954413    1.425191   -0.226471
O                     1.785598   -0.614368   -0.005990
H                     0.994229   -1.228182   -0.087534


