# b3lyp/aug-cc-pVDZ opt(qst3, calcfc, noeigen, tight) integral(grid=superfine) scf(maxcyc=256) freq

OH-chloromethane_ts.xyz reactant

-1 1
Cl                    -1.939742   -0.050521   -0.000617
C                     1.395983    0.180769    0.001772
H                     0.896042   -0.247371    0.885671
H                     0.894367   -0.240904   -0.884262
H                     1.209475    1.263678    0.005871
O                     2.821836   -0.010675   -0.000143
H                     2.936987   -0.968774   -0.004317

OH-chloromethane_ts.xyz product

-1 1
Cl                    -1.939109   -0.049942    0.000012
C                     1.394680    0.176477   -0.000015
H                     0.896124   -0.250754    0.885105
H                     0.896116   -0.250835   -0.885090
H                     1.202441    1.258338   -0.000063
O                     2.821497   -0.007862   -0.000013
H                     2.941531   -0.965373    0.000030

OH-chloromethane_ts.xyz ts

-1 1
Cl                    -1.594915   -0.172227   -0.052327
C                     0.337081    0.037514    0.024553
H                     0.624810   -0.466670    0.946153
H                     0.796626   -0.394766   -0.862834
H                     0.488174    1.116279    0.078027
O                     2.702459    0.038461   -0.228277
H                     2.757059   -0.878419    0.094712

