# mp2/6-31G(d',p') opt=(ts, calcfc, noeigen) freq

F-CH3-OH ts-opt & freq calc

-1 1
F          0.00000        0.00000        0.00000
C          1.77500        0.00000        0.00000
H          1.83411        0.00000        1.05735
H          1.81381        -0.91926       -0.52434
H          1.81381        0.91926       -0.52434
O          3.74703        0.00000        0.06197
H          4.12408        0.00000       -0.82631