# mp2/6-31G IRC=CALCFC

F-CH2CH3-F

-1 1
C                  -0.011777   -0.020542    0.007887
C                   1.506822   -0.001900    0.003130
H                   1.868597    0.416842    0.950907
H                   1.894339   -1.013533   -0.142828
H                   1.860100    0.665251   -0.793502
H                  -0.558710   -0.141590    0.928872
H                  -0.567673    0.119836   -0.904951
F                  -0.079720    1.828690    0.271792
F                  -0.181848   -1.853053   -0.252517

