# mp2/6-31G IRC=CALCFC SCF(maxcyc=256)

Cl-ClC2H5

-1 1
C                  -0.005797   -0.000000    0.002373
C                   1.510873    0.000000   -0.004333
7                  -0.470299   -0.000000   -2.378886
7                  -0.233702   -0.000000    2.467670
H                  -0.563467   -0.920425    0.040252
H                  -0.563467    0.920425    0.040252
H                   1.886714    0.000000   -1.032386
H                   1.884462    0.886269    0.520397
H                   1.884462   -0.886269    0.520397


