# MP2/cc-pVDZ irc(reverse, calcfc, maxpoints=64, stepsize=5, tight) integral(grid=superfine) scf(maxcyc=256)

OH-chloroform_ts_reactant

-1 1
Cl                    -1.931554   -0.123801    0.044598
C                     1.381298    0.224529   -0.028211
H                     0.929837   -0.207742    0.879509
H                     0.875098   -0.239965   -0.889715
H                     1.141216    1.296531   -0.040560
O                     2.814133    0.102585   -0.069414
H                     2.976145   -0.848435   -0.060521


